@<TRIPOS>MOLECULE
data/1,3-dichlorobenzene/waterbox/unl/unl.pdb
 12 12 0 0 0
SMALL
GASTEIGER

@<TRIPOS>ATOM
      1  C         -0.0010   -2.1490    0.0020 C.ar    1  UNL1       -0.0590
      2  C1         1.2070   -1.4490    0.0050 C.ar    1  UNL1       -0.0433
      3  C2         1.2010   -0.0540    0.0020 C.ar    1  UNL1        0.0424
      4  C3        -0.0010    0.6520   -0.0020 C.ar    1  UNL1       -0.0250
      5  C4        -1.2020   -0.0540   -0.0030 C.ar    1  UNL1        0.0424
      6  C5        -1.2080   -1.4490   -0.0020 C.ar    1  UNL1       -0.0433
      7 CL         -2.6950    0.8030   -0.0040 Cl      1  UNL1       -0.0835
      8 Cl1         2.6940    0.8030    0.0040 Cl      1  UNL1       -0.0835
      9  H         -0.0010   -3.2360    0.0020 H       1  UNL1        0.0618
     10  H1         2.1470   -1.9950    0.0100 H       1  UNL1        0.0632
     11  H2        -0.0010    1.7380   -0.0040 H       1  UNL1        0.0647
     12  H3        -2.1480   -1.9950   -0.0040 H       1  UNL1        0.0632
@<TRIPOS>BOND
     1     7     5    1
     2    11     4    1
     3    12     6    1
     4     5     4   ar
     5     5     6   ar
     6     4     3   ar
     7     6     1   ar
     8     1     9    1
     9     1     2   ar
    10     3     8    1
    11     3     2   ar
    12     2    10    1
