@<TRIPOS>MOLECULE
data/cpd31/waterbox/dy6/dy6.pdb
 52 55 0 0 0
SMALL
GASTEIGER

@<TRIPOS>ATOM
      1  C01       -3.5010  -14.4600   51.4330 C.3     1  DY61       -0.0397
      2  N1         4.4490   -6.2920   53.1630 N.ar    1  DY61       -0.2147
      3  S2         4.0090   -6.8640   54.7310 S.O2    1  DY61        0.0843
      4  C4         4.1530   -4.9430   53.0570 C.ar    1  DY61        0.0302
      5  C5         2.1910   -6.8310   54.9220 C.ar    1  DY61        0.1117
      6  O6         4.5070   -5.8770   55.9920 O.2     1  DY61       -0.1476
      7  O7         4.4890   -8.4260   55.1140 O.2     1  DY61       -0.1476
      8  C8         5.0780   -6.7920   51.9590 C.ar    1  DY61        0.1137
      9  C9         4.5140   -4.4680   51.8530 C.ar    1  DY61       -0.0345
     10  C10        1.6370   -8.0950   54.8140 C.ar    1  DY61       -0.0228
     11  C11        1.3040   -5.7060   55.0820 C.ar    1  DY61       -0.0348
     12  C12        5.1240   -5.5650   51.1940 C.ar    1  DY61        0.0052
     13  C13        5.6360   -8.0240   51.3650 C.ar    1  DY61        0.1458
     14  C14        0.2600   -8.2410   54.6590 C.ar    1  DY61        0.0389
     15  C15       -0.0950   -5.8720   54.8620 C.ar    1  DY61       -0.0592
     16  C16        5.7450   -5.5360   49.9540 C.ar    1  DY61       -0.0523
     17  C17        6.3030   -7.9020   50.1000 C.ar    1  DY61       -0.0178
     18  C18       -0.2420   -9.5800   54.3400 C.2     1  DY61        0.2483
     19  C19       -0.6120   -7.1520   54.6060 C.ar    1  DY61       -0.0495
     20  C20        6.3650   -6.6570   49.4430 C.ar    1  DY61       -0.0576
     21  N21       -1.1260   -9.6260   53.2930 N.am    1  DY61       -0.2808
     22  O22        0.1230  -10.5380   55.0100 O.2     1  DY61       -0.2699
     23  C23       -1.7070  -10.8320   52.8400 C.ar    1  DY61        0.0478
     24  C24       -2.7270  -10.7860   51.9130 C.ar    1  DY61        0.0845
     25  C25       -1.2630  -12.0470   53.3130 C.ar    1  DY61       -0.0394
     26  C26       -3.3030  -11.9460   51.4580 C.ar    1  DY61       -0.0429
     27  C27       -3.2220   -9.5100   51.3920 C.2     1  DY61        0.3883
     28  C28       -1.8420  -13.2060   52.8610 C.ar    1  DY61       -0.0570
     29  C29       -2.8580  -13.1550   51.9360 C.ar    1  DY61       -0.0496
     30  O30       -3.0420   -8.4890   52.1030 O.co2   1  DY61       -0.2405
     31  O31       -3.7930   -9.5580   50.2700 O.co2   1  DY61       -0.2405
     32  O1         5.5840   -9.2840   51.8840 O.3     1  DY61       -0.4930
     33  C1         6.2750  -10.2380   50.9550 C.3     1  DY61        0.0789
     34  H1         6.8770   -6.5000   48.5050 H       1  DY61        0.0619
     35  H01        3.7070   -4.4110   53.8870 H       1  DY61        0.0828
     36  H02        4.4210   -3.4580   51.4820 H       1  DY61        0.0639
     37  H03       -3.6950  -15.1200   52.2790 H       1  DY61        0.0278
     38  H04       -2.8250  -14.9530   50.7350 H       1  DY61        0.0278
     39  H05       -4.4400  -14.2310   50.9290 H       1  DY61        0.0278
     40  H07        2.2700   -8.9670   54.7440 H       1  DY61        0.0645
     41  H08        1.5830   -4.6970   55.3640 H       1  DY61        0.0637
     42  H10       -0.8140   -5.0530   54.8470 H       1  DY61        0.0618
     43  H11        5.7870   -4.6090   49.4020 H       1  DY61        0.0624
     44  H12        6.7520   -8.7540   49.6060 H       1  DY61        0.0655
     45  H13       -1.6570   -7.3380   54.3520 H       1  DY61        0.0625
     46  H15       -1.3710   -8.7640   52.8260 H       1  DY61        0.1552
     47  H16       -0.4550  -12.0870   54.0440 H       1  DY61        0.0636
     48  H17       -4.1080  -11.9090   50.7240 H       1  DY61        0.0629
     49  H18       -1.4950  -14.1690   53.2350 H       1  DY61        0.0621
     50  H2         6.2340  -11.2450   51.3700 H       1  DY61        0.0660
     51  H3         5.7790  -10.2240   49.9850 H       1  DY61        0.0660
     52  H4         7.3160   -9.9380   50.8340 H       1  DY61        0.0660
@<TRIPOS>BOND
     1    34    20    1
     2    43    16    1
     3    20    16   ar
     4    20    17   ar
     5    44    17    1
     6    16    12   ar
     7    51    33    1
     8    17    13   ar
     9    31    27   ar
    10    48    26    1
    11    38     1    1
    12    52    33    1
    13    39     1    1
    14    33    50    1
    15    33    32    1
    16    12     9   ar
    17    12     8   ar
    18    13    32    1
    19    13     8   ar
    20    27    24    1
    21    27    30   ar
    22     1    29    1
    23     1    37    1
    24    26    24   ar
    25    26    29   ar
    26    36     9    1
    27     9     4   ar
    28    24    23   ar
    29    29    28   ar
    30     8     2   ar
    31    46    21    1
    32    23    21    1
    33    23    25   ar
    34    28    49    1
    35    28    25   ar
    36     4     2   ar
    37     4    35    1
    38     2     3    1
    39    21    18   am
    40    25    47    1
    41    18    14    1
    42    18    22    2
    43    45    19    1
    44    19    14   ar
    45    19    15   ar
    46    14    10   ar
    47     3     5    1
    48     3     7    2
    49     3     6    2
    50    40    10    1
    51    10     5   ar
    52    42    15    1
    53    15    11   ar
    54     5    11   ar
    55    11    41    1
