@<TRIPOS>MOLECULE
data/cpd25/complex/dy6/dy6.pdb
 52 55 0 0 0
SMALL
GASTEIGER

@<TRIPOS>ATOM
      1  C02        8.3990   -6.3160   48.5110 C.3     1  DY61        0.0788
      2  O01        7.0140   -6.4580   48.2530 O.3     1  DY61       -0.4951
      3  C01       -3.5010  -14.4600   51.4330 C.3     1  DY61       -0.0397
      4  N1         4.4490   -6.2920   53.1630 N.ar    1  DY61       -0.2182
      5  S2         4.0090   -6.8640   54.7310 S.O2    1  DY61        0.0842
      6  C4         4.1530   -4.9430   53.0570 C.ar    1  DY61        0.0301
      7  C5         2.1910   -6.8310   54.9220 C.ar    1  DY61        0.1117
      8  O6         4.5070   -5.8770   55.9920 O.2     1  DY61       -0.1476
      9  O7         4.4890   -8.4260   55.1140 O.2     1  DY61       -0.1476
     10  C8         5.0780   -6.7920   51.9590 C.ar    1  DY61        0.0724
     11  C9         4.5140   -4.4680   51.8530 C.ar    1  DY61       -0.0345
     12  C10        1.6370   -8.0950   54.8140 C.ar    1  DY61       -0.0228
     13  C11        1.3040   -5.7060   55.0820 C.ar    1  DY61       -0.0348
     14  C12        5.1240   -5.5650   51.1940 C.ar    1  DY61        0.0051
     15  C13        5.6360   -8.0240   51.3650 C.ar    1  DY61       -0.0324
     16  C14        0.2600   -8.2410   54.6590 C.ar    1  DY61        0.0389
     17  C15       -0.0950   -5.8720   54.8620 C.ar    1  DY61       -0.0592
     18  C16        5.7450   -5.5360   49.9540 C.ar    1  DY61       -0.0107
     19  C17        6.3030   -7.9020   50.1000 C.ar    1  DY61       -0.0179
     20  C18       -0.2420   -9.5800   54.3400 C.2     1  DY61        0.2483
     21  C19       -0.6120   -7.1520   54.6060 C.ar    1  DY61       -0.0495
     22  C20        6.3650   -6.6570   49.4430 C.ar    1  DY61        0.1208
     23  N21       -1.1260   -9.6260   53.2930 N.am    1  DY61       -0.2808
     24  O22        0.1230  -10.5380   55.0100 O.2     1  DY61       -0.2699
     25  C23       -1.7070  -10.8320   52.8400 C.ar    1  DY61        0.0478
     26  C24       -2.7270  -10.7860   51.9130 C.ar    1  DY61        0.0845
     27  C25       -1.2630  -12.0470   53.3130 C.ar    1  DY61       -0.0394
     28  C26       -3.3030  -11.9460   51.4580 C.ar    1  DY61       -0.0429
     29  C27       -3.2220   -9.5100   51.3920 C.2     1  DY61        0.3883
     30  C28       -1.8420  -13.2060   52.8610 C.ar    1  DY61       -0.0570
     31  C29       -2.8580  -13.1550   51.9360 C.ar    1  DY61       -0.0496
     32  O30       -3.0420   -8.4890   52.1030 O.co2   1  DY61       -0.2405
     33  O31       -3.7930   -9.5580   50.2700 O.co2   1  DY61       -0.2405
     34  H01        3.7070   -4.4110   53.8870 H       1  DY61        0.0828
     35  H02        4.4210   -3.4580   51.4820 H       1  DY61        0.0639
     36  H03       -3.6950  -15.1200   52.2790 H       1  DY61        0.0278
     37  H04       -2.8250  -14.9530   50.7350 H       1  DY61        0.0278
     38  H05       -4.4400  -14.2310   50.9290 H       1  DY61        0.0278
     39  H07        2.2700   -8.9670   54.7440 H       1  DY61        0.0645
     40  H08        1.5830   -4.6970   55.3640 H       1  DY61        0.0637
     41  H09        5.5930   -9.0650   51.7940 H       1  DY61        0.0640
     42  H10       -0.8140   -5.0530   54.8470 H       1  DY61        0.0618
     43  H11        5.7870   -4.6090   49.4020 H       1  DY61        0.0661
     44  H12        6.7520   -8.7540   49.6060 H       1  DY61        0.0655
     45  H13       -1.6570   -7.3380   54.3520 H       1  DY61        0.0625
     46  H15       -1.3710   -8.7640   52.8260 H       1  DY61        0.1552
     47  H16       -0.4550  -12.0870   54.0440 H       1  DY61        0.0636
     48  H17       -4.1080  -11.9090   50.7240 H       1  DY61        0.0629
     49  H18       -1.4950  -14.1690   53.2350 H       1  DY61        0.0621
     50  H14        8.9230   -6.1650   47.5650 H       1  DY61        0.0660
     51  H19        8.5630   -5.4500   49.1580 H       1  DY61        0.0660
     52  H20        8.7750   -7.2210   48.9940 H       1  DY61        0.0660
@<TRIPOS>BOND
     1    50     1    1
     2     2     1    1
     3     2    22    1
     4     1    52    1
     5     1    51    1
     6    43    18    1
     7    22    18   ar
     8    22    19   ar
     9    44    19    1
    10    18    14   ar
    11    19    15   ar
    12    33    29   ar
    13    48    28    1
    14    37     3    1
    15    38     3    1
    16    14    11   ar
    17    14    10   ar
    18    15    41    1
    19    15    10   ar
    20    29    26    1
    21    29    32   ar
    22     3    31    1
    23     3    36    1
    24    28    26   ar
    25    28    31   ar
    26    35    11    1
    27    11     6   ar
    28    26    25   ar
    29    31    30   ar
    30    10     4   ar
    31    46    23    1
    32    25    23    1
    33    25    27   ar
    34    30    49    1
    35    30    27   ar
    36     6     4   ar
    37     6    34    1
    38     4     5    1
    39    23    20   am
    40    27    47    1
    41    20    16    1
    42    20    24    2
    43    45    21    1
    44    21    16   ar
    45    21    17   ar
    46    16    12   ar
    47     5     7    1
    48     5     9    2
    49     5     8    2
    50    39    12    1
    51    12     7   ar
    52    42    17    1
    53    17    13   ar
    54     7    13   ar
    55    13    40    1
